$DATA1 SOURCE='HSPICE' VERSION='Z-2007.03       '
.TITLE ' '
 index            voff_pd1         vth0_pd1         ub_pd1            
                  voff_wl1         vth0_wl1         ub_wl1            
                  tread            ratio            temper            
                  alter#            
    1.0000          -0.1770           0.3507         1.938e-18        
                  -5.299e-02          0.2607         8.931e-19        
                   3.857e-10        2.592e+09         25.0000         
                     1.0000         
    2.0000          -0.1770           0.3507         1.938e-18        
                  -5.816e-02          0.3099         9.218e-19        
                   4.307e-10        2.321e+09         25.0000         
                     1.0000         
    3.0000          -0.1770           0.3507         1.938e-18        
                    -0.1274           0.4279         1.305e-18        
                   6.526e-10        1.532e+09         25.0000         
                     1.0000         
    4.0000          -0.1770           0.3507         1.938e-18        
                    -0.2186           0.3906         1.327e-18        
                   5.745e-10        1.740e+09         25.0000         
                     1.0000         
    5.0000          -0.1770           0.3507         1.938e-18        
                  -5.005e-02          0.3669         1.316e-18        
                   5.446e-10        1.836e+09         25.0000         
                     1.0000         
    6.0000          -0.1770           0.3507         1.938e-18        
                    -0.2807           0.2481         9.454e-19        
                   3.759e-10        2.660e+09         25.0000         
                     1.0000         
    7.0000          -0.1770           0.3507         1.938e-18        
                  -9.549e-02          0.4034         8.505e-19        
                   5.402e-10        1.851e+09         25.0000         
                     1.0000         
    8.0000          -0.1770           0.3507         1.938e-18        
                    -0.1177           0.3720         8.072e-19        
                   4.860e-10        2.057e+09         25.0000         
                     1.0000         
    9.0000          -0.1770           0.3507         1.938e-18        
                  -8.906e-02          0.3420         1.250e-18        
                   4.923e-10        2.031e+09         25.0000         
                     1.0000         
   10.0000          -0.1770           0.3507         1.938e-18        
                  -8.632e-02          0.2410         1.373e-18        
                   3.936e-10        2.540e+09         25.0000         
                     1.0000         
   11.0000          -0.1770           0.3507         1.938e-18        
                    -0.1930           0.3678         1.446e-18        
                   5.482e-10        1.824e+09         25.0000         
                     1.0000         
   12.0000          -0.1770           0.3507         1.938e-18        
                    -0.2565           0.3768         1.495e-18        
                   5.696e-10        1.755e+09         25.0000         
                     1.0000         
   13.0000          -0.1770           0.3507         1.938e-18        
                  -4.645e-02          0.2951         8.084e-19        
                   4.104e-10        2.436e+09         25.0000         
                     1.0000         
   14.0000          -0.1770           0.3507         1.938e-18        
                    -0.3201           0.3186         9.333e-19        
                   4.347e-10        2.300e+09         25.0000         
                     1.0000         
   15.0000          -0.1770           0.3507         1.938e-18        
                    -0.2133           0.3381         5.523e-19        
                   4.219e-10        2.370e+09         25.0000         
                     1.0000         
   16.0000          -0.1770           0.3507         1.938e-18        
                    -0.3001           0.3532         1.120e-18        
                   4.918e-10        2.033e+09         25.0000         
                     1.0000         
   17.0000          -0.1770           0.3507         1.938e-18        
                    -0.3242           0.2759         1.066e-18        
                   4.042e-10        2.474e+09         25.0000         
                     1.0000         
   18.0000          -0.1770           0.3507         1.938e-18        
                    -0.1343           0.2429         1.146e-18        
                   3.827e-10        2.612e+09         25.0000         
                     1.0000         
   19.0000          -0.1770           0.3507         1.938e-18        
                    -0.2533           0.3841         1.474e-18        
                   5.805e-10        1.722e+09         25.0000         
                     1.0000         
   20.0000          -0.1770           0.3507         1.938e-18        
                    -0.2451           0.4289         1.419e-18        
                   6.708e-10        1.490e+09         25.0000         
                     1.0000         
   21.0000          -0.1770           0.3507         1.938e-18        
                    -0.1067           0.3304         6.142e-19        
                   4.220e-10        2.369e+09         25.0000         
                     1.0000         
   22.0000          -0.1770           0.3507         1.938e-18        
                  -4.549e-02          0.4116         1.106e-18        
                   6.108e-10        1.637e+09         25.0000         
                     1.0000         
   23.0000          -0.1770           0.3507         1.938e-18        
                    -0.2160           0.3793         8.012e-19        
                   4.929e-10        2.028e+09         25.0000         
                     1.0000         
   24.0000          -0.1770           0.3507         1.938e-18        
                    -0.1089           0.4249         1.495e-18        
                   6.780e-10        1.475e+09         25.0000         
                     1.0000         
   25.0000          -0.1770           0.3507         1.938e-18        
                    -0.2216           0.4260         6.103e-19        
                   5.353e-10        1.868e+09         25.0000         
                     1.0000         
   26.0000          -0.1770           0.3507         1.938e-18        
                    -0.2739           0.4092         1.541e-18        
                   6.420e-10        1.557e+09         25.0000         
                     1.0000         
   27.0000          -0.1770           0.3507         1.938e-18        
                    -0.1804           0.4359         6.627e-19        
                   5.609e-10        1.782e+09         25.0000         
                     1.0000         
   28.0000          -0.1770           0.3507         1.938e-18        
                  -3.817e-02          0.2802         1.299e-18        
                   4.289e-10        2.331e+09         25.0000         
                     1.0000         
   29.0000          -0.1770           0.3507         1.938e-18        
                    -0.2237           0.2801         8.947e-19        
                   3.970e-10        2.518e+09         25.0000         
                     1.0000         
   30.0000          -0.1770           0.3507         1.938e-18        
                    -0.2399           0.4245         7.194e-19        
                   5.498e-10        1.818e+09         25.0000         
                     1.0000         
   31.0000          -0.1770           0.3507         1.938e-18        
                    -0.2477           0.4070         1.469e-18        
                   6.268e-10        1.595e+09         25.0000         
                     1.0000         
   32.0000          -0.1770           0.3507         1.938e-18        
                  -8.008e-02          0.2792         6.652e-19        
                   3.845e-10        2.600e+09         25.0000         
                     1.0000         
   33.0000          -0.1770           0.3507         1.938e-18        
                    -0.2539           0.2541         6.350e-19        
                   3.639e-10        2.748e+09         25.0000         
                     1.0000         
   34.0000          -0.1770           0.3507         1.938e-18        
                    -0.1946           0.3231         7.628e-19        
                   4.256e-10        2.349e+09         25.0000         
                     1.0000         
   35.0000          -0.1770           0.3507         1.938e-18        
                    -0.1077           0.3611         1.006e-18        
                   4.933e-10        2.027e+09         25.0000         
                     1.0000         
   36.0000          -0.1770           0.3507         1.938e-18        
                    -0.1552           0.3625         8.091e-19        
                   4.729e-10        2.114e+09         25.0000         
                     1.0000         
   37.0000          -0.1770           0.3507         1.938e-18        
                  -9.434e-02          0.3524         1.114e-18        
                   4.933e-10        2.027e+09         25.0000         
                     1.0000         
   38.0000          -0.1770           0.3507         1.938e-18        
                  -7.703e-02          0.3027         5.912e-19        
                   3.982e-10        2.511e+09         25.0000         
                     1.0000         
   39.0000          -0.1770           0.3507         1.938e-18        
                    -0.2773           0.3296         1.425e-18        
                   4.886e-10        2.046e+09         25.0000         
                     1.0000         
   40.0000          -0.1770           0.3507         1.938e-18        
                    -0.1481           0.2904         1.593e-18        
                   4.538e-10        2.203e+09         25.0000         
                     1.0000         
   41.0000          -0.1770           0.3507         1.938e-18        
                    -0.1590           0.4123         1.039e-18        
                   5.768e-10        1.733e+09         25.0000         
                     1.0000         
   42.0000          -0.1770           0.3507         1.938e-18        
                    -0.2948           0.2628         1.082e-18        
                   3.942e-10        2.536e+09         25.0000         
                     1.0000         
   43.0000          -0.1770           0.3507         1.938e-18        
                  -9.667e-02          0.2749         1.109e-18        
                   4.072e-10        2.455e+09         25.0000         
                     1.0000         
   44.0000          -0.1770           0.3507         1.938e-18        
                    -0.2758           0.2235         7.862e-19        
                   3.528e-10        2.834e+09         25.0000         
                     1.0000         
   45.0000          -0.1770           0.3507         1.938e-18        
                    -0.1468           0.2897         5.545e-19        
                   3.832e-10        2.609e+09         25.0000         
                     1.0000         
   46.0000          -0.1770           0.3507         1.938e-18        
                    -0.1619           0.3406         1.547e-18        
                   5.156e-10        1.939e+09         25.0000         
                     1.0000         
   47.0000          -0.1770           0.3507         1.938e-18        
                  -5.085e-02          0.2609         1.611e-18        
                   4.265e-10        2.344e+09         25.0000         
                     1.0000         
   48.0000          -0.1770           0.3507         1.938e-18        
                    -0.3063           0.2985         1.373e-18        
                   4.468e-10        2.238e+09         25.0000         
                     1.0000         
   49.0000          -0.1770           0.3507         1.938e-18        
                    -0.1599           0.4353         7.428e-19        
                   5.737e-10        1.743e+09         25.0000         
                     1.0000         
   50.0000          -0.1770           0.3507         1.938e-18        
                    -0.3337           0.3290         1.591e-18        
                   5.024e-10        1.990e+09         25.0000         
                     1.0000         
   51.0000          -0.1770           0.3507         1.938e-18        
                  -7.669e-02          0.2115         1.509e-18        
                   3.775e-10        2.649e+09         25.0000         
                     1.0000         
   52.0000          -0.1770           0.3507         1.938e-18        
                    -0.2388           0.3486         1.536e-18        
                   5.264e-10        1.899e+09         25.0000         
                     1.0000         
   53.0000          -0.1770           0.3507         1.938e-18        
                    -0.2266           0.4151         1.499e-18        
                   6.499e-10        1.538e+09         25.0000         
                     1.0000         
   54.0000          -0.1770           0.3507         1.938e-18        
                    -0.3056           0.2624         1.302e-18        
                   4.067e-10        2.458e+09         25.0000         
                     1.0000         
   55.0000          -0.1770           0.3507         1.938e-18        
                  -2.603e-02          0.4114         5.694e-19        
                   5.547e-10        1.802e+09         25.0000         
                     1.0000         
   56.0000          -0.1770           0.3507         1.938e-18        
                  -5.665e-02          0.3838         1.452e-18        
                   5.898e-10        1.695e+09         25.0000         
                     1.0000         
   57.0000          -0.1770           0.3507         1.938e-18        
                  -8.743e-02          0.3708         1.280e-18        
                   5.391e-10        1.854e+09         25.0000         
                     1.0000         
   58.0000          -0.1770           0.3507         1.938e-18        
                    -0.1916           0.2498         9.429e-19        
                   3.770e-10        2.652e+09         25.0000         
                     1.0000         
   59.0000          -0.1770           0.3507         1.938e-18        
                  -7.984e-02          0.3321         9.055e-19        
                   4.504e-10        2.220e+09         25.0000         
                     1.0000         
   60.0000          -0.1770           0.3507         1.938e-18        
                    -0.2135           0.2718         7.611e-19        
                   3.826e-10        2.613e+09         25.0000         
                     1.0000         
   61.0000          -0.1770           0.3507         1.938e-18        
                    -0.2785           0.3200         1.512e-18        
                   4.834e-10        2.068e+09         25.0000         
                     1.0000         
   62.0000          -0.1770           0.3507         1.938e-18        
                    -0.3248           0.3283         7.940e-19        
                   4.331e-10        2.308e+09         25.0000         
                     1.0000         
   63.0000          -0.1770           0.3507         1.938e-18        
                    -0.1880           0.3057         8.406e-19        
                   4.154e-10        2.407e+09         25.0000         
                     1.0000         
   64.0000          -0.1770           0.3507         1.938e-18        
                    -0.3179           0.3276         1.125e-18        
                   4.603e-10        2.172e+09         25.0000         
                     1.0000         
   65.0000          -0.1770           0.3507         1.938e-18        
                    -0.2680           0.2590         5.558e-19        
                   3.627e-10        2.757e+09         25.0000         
                     1.0000         
   66.0000          -0.1770           0.3507         1.938e-18        
                    -0.3250           0.3244         1.301e-18        
                   4.714e-10        2.121e+09         25.0000         
                     1.0000         
   67.0000          -0.1770           0.3507         1.938e-18        
                  -7.129e-02          0.3040         9.595e-19        
                   4.259e-10        2.347e+09         25.0000         
                     1.0000         
   68.0000          -0.1770           0.3507         1.938e-18        
                    -0.1988           0.3324         1.027e-18        
                   4.575e-10        2.185e+09         25.0000         
                     1.0000         
   69.0000          -0.1770           0.3507         1.938e-18        
                    -0.1019           0.3159         1.060e-18        
                   4.436e-10        2.254e+09         25.0000         
                     1.0000         
   70.0000          -0.1770           0.3507         1.938e-18        
                    -0.1120           0.3860         5.873e-19        
                   4.795e-10        2.085e+09         25.0000         
                     1.0000         
   71.0000          -0.1770           0.3507         1.938e-18        
                  -8.458e-02          0.2826         1.586e-18        
                   4.459e-10        2.242e+09         25.0000         
                     1.0000         
   72.0000          -0.1770           0.3507         1.938e-18        
                    -0.1877           0.3604         1.068e-18        
                   4.966e-10        2.013e+09         25.0000         
                     1.0000         
   73.0000          -0.1770           0.3507         1.938e-18        
                    -0.2369           0.2518         8.626e-19        
                   3.741e-10        2.672e+09         25.0000         
                     1.0000         
   74.0000          -0.1770           0.3507         1.938e-18        
                    -0.1093           0.2808         6.951e-19        
                   3.862e-10        2.589e+09         25.0000         
                     1.0000         
   75.0000          -0.1770           0.3507         1.938e-18        
                  -5.751e-02          0.2528         9.571e-19        
                   3.827e-10        2.612e+09         25.0000         
                     1.0000         
   76.0000          -0.1770           0.3507         1.938e-18        
                    -0.2935           0.2974         1.257e-18        
                   4.373e-10        2.286e+09         25.0000         
                     1.0000         
   77.0000          -0.1770           0.3507         1.938e-18        
                    -0.2775           0.2401         1.546e-18        
                   4.007e-10        2.495e+09         25.0000         
                     1.0000         
   78.0000          -0.1770           0.3507         1.938e-18        
                    -0.2915           0.2942         8.024e-19        
                   4.026e-10        2.484e+09         25.0000         
                     1.0000         
   79.0000          -0.1770           0.3507         1.938e-18        
                    -0.1373           0.4062         1.226e-18        
                   5.923e-10        1.688e+09         25.0000         
                     1.0000         
   80.0000          -0.1770           0.3507         1.938e-18        
                    -0.2981           0.3409         8.880e-19        
                   4.547e-10        2.199e+09         25.0000         
                     1.0000         
   81.0000          -0.1770           0.3507         1.938e-18        
                    -0.3161           0.3458         1.231e-18        
                   4.927e-10        2.029e+09         25.0000         
                     1.0000         
   82.0000          -0.1770           0.3507         1.938e-18        
                    -0.1224           0.2748         1.559e-18        
                   4.347e-10        2.300e+09         25.0000         
                     1.0000         
   83.0000          -0.1770           0.3507         1.938e-18        
                    -0.1761           0.3958         1.144e-18        
                   5.607e-10        1.783e+09         25.0000         
                     1.0000         
   84.0000          -0.1770           0.3507         1.938e-18        
                  -5.031e-02          0.2703         1.552e-18        
                   4.327e-10        2.310e+09         25.0000         
                     1.0000         
   85.0000          -0.1770           0.3507         1.938e-18        
                  -2.914e-02          0.2652         1.233e-18        
                   4.117e-10        2.429e+09         25.0000         
                     1.0000         
   86.0000          -0.1770           0.3507         1.938e-18        
                    -0.2535           0.2348         6.571e-19        
                   3.535e-10        2.829e+09         25.0000         
                     1.0000         
   87.0000          -0.1770           0.3507         1.938e-18        
                    -0.2850           0.3007         6.903e-19        
                   4.003e-10        2.498e+09         25.0000         
                     1.0000         
   88.0000          -0.1770           0.3507         1.938e-18        
                    -0.1769           0.2746         1.534e-18        
                   4.326e-10        2.311e+09         25.0000         
                     1.0000         
   89.0000          -0.1770           0.3507         1.938e-18        
                  -3.187e-02          0.2829         6.002e-19        
                   3.900e-10        2.564e+09         25.0000         
                     1.0000         
   90.0000          -0.1770           0.3507         1.938e-18        
                    -0.2831           0.2925         1.241e-18        
                   4.311e-10        2.319e+09         25.0000         
                     1.0000         
   91.0000          -0.1770           0.3507         1.938e-18        
                    -0.3167           0.2432         1.179e-18        
                   3.843e-10        2.602e+09         25.0000         
                     1.0000         
   92.0000          -0.1770           0.3507         1.938e-18        
                    -0.3135           0.3908         7.479e-19        
                   5.020e-10        1.991e+09         25.0000         
                     1.0000         
   93.0000          -0.1770           0.3507         1.938e-18        
                    -0.1455           0.3847         5.646e-19        
                   4.733e-10        2.112e+09         25.0000         
                     1.0000         
   94.0000          -0.1770           0.3507         1.938e-18        
                    -0.2430           0.3197         1.391e-18        
                   4.729e-10        2.114e+09         25.0000         
                     1.0000         
   95.0000          -0.1770           0.3507         1.938e-18        
                    -0.3297           0.2631         6.285e-19        
                   3.692e-10        2.708e+09         25.0000         
                     1.0000         
   96.0000          -0.1770           0.3507         1.938e-18        
                  -5.957e-02          0.4358         6.639e-19        
                   5.867e-10        1.704e+09         25.0000         
                     1.0000         
   97.0000          -0.1770           0.3507         1.938e-18        
                    -0.1688           0.2555         6.889e-19        
                   3.677e-10        2.719e+09         25.0000         
                     1.0000         
   98.0000          -0.1770           0.3507         1.938e-18        
                    -0.2142           0.2970         7.254e-19        
                   3.997e-10        2.501e+09         25.0000         
                     1.0000         
   99.0000          -0.1770           0.3507         1.938e-18        
                    -0.1454           0.3627         1.055e-18        
                   4.990e-10        2.004e+09         25.0000         
                     1.0000         
  100.0000          -0.1770           0.3507         1.938e-18        
                  -6.401e-02          0.2700         1.150e-18        
                   4.071e-10        2.456e+09         25.0000         
                     1.0000         
  101.0000          -0.1770           0.3507         1.938e-18        
                    -0.2243           0.4198         8.143e-19        
                   5.563e-10        1.797e+09         25.0000         
                     1.0000         
  102.0000          -0.1770           0.3507         1.938e-18        
                  -6.239e-02          0.3705         8.197e-19        
                   4.936e-10        2.025e+09         25.0000         
                     1.0000         
  103.0000          -0.1770           0.3507         1.938e-18        
                    -0.3285           0.2864         7.272e-19        
                   3.913e-10        2.555e+09         25.0000         
                     1.0000         
  104.0000          -0.1770           0.3507         1.938e-18        
                    -0.3121           0.3242         8.241e-19        
                   4.315e-10        2.317e+09         25.0000         
                     1.0000         
  105.0000          -0.1770           0.3507         1.938e-18        
                  -9.252e-02          0.3240         6.716e-19        
                   4.216e-10        2.372e+09         25.0000         
                     1.0000         
  106.0000          -0.1770           0.3507         1.938e-18        
                    -0.2578           0.2929         1.114e-18        
                   4.228e-10        2.365e+09         25.0000         
                     1.0000         
  107.0000          -0.1770           0.3507         1.938e-18        
                    -0.2452           0.3810         9.095e-19        
                   5.077e-10        1.969e+09         25.0000         
                     1.0000         
  108.0000          -0.1770           0.3507         1.938e-18        
                    -0.2524           0.2426         1.042e-18        
                   3.770e-10        2.652e+09         25.0000         
                     1.0000         
  109.0000          -0.1770           0.3507         1.938e-18        
                    -0.2255           0.3216         7.913e-19        
                   4.264e-10        2.345e+09         25.0000         
                     1.0000         
  110.0000          -0.1770           0.3507         1.938e-18        
                  -5.212e-02          0.3059         9.463e-19        
                   4.294e-10        2.329e+09         25.0000         
                     1.0000         
  111.0000          -0.1770           0.3507         1.938e-18        
                    -0.2863           0.3255         1.091e-18        
                   4.550e-10        2.197e+09         25.0000         
                     1.0000         
  112.0000          -0.1770           0.3507         1.938e-18        
                  -6.099e-02          0.2793         1.432e-18        
                   4.337e-10        2.305e+09         25.0000         
                     1.0000         
  113.0000          -0.1770           0.3507         1.938e-18        
                    -0.1957           0.4067         9.878e-19        
                   5.588e-10        1.789e+09         25.0000         
                     1.0000         
  114.0000          -0.1770           0.3507         1.938e-18        
                  -7.483e-02          0.2196         9.482e-19        
                   3.588e-10        2.786e+09         25.0000         
                     1.0000         
  115.0000          -0.1770           0.3507         1.938e-18        
                  -2.953e-02          0.4241         1.293e-18        
                   6.866e-10        1.456e+09         25.0000         
                     1.0000         
  116.0000          -0.1770           0.3507         1.938e-18        
                    -0.1981           0.2730         1.229e-18        
                   4.118e-10        2.428e+09         25.0000         
                     1.0000         
  117.0000          -0.1770           0.3507         1.938e-18        
                    -0.1271           0.2155         7.742e-19        
                   3.481e-10        2.872e+09         25.0000         
                     1.0000         
  118.0000          -0.1770           0.3507         1.938e-18        
                    -0.3261           0.3535         9.422e-19        
                   4.747e-10        2.106e+09         25.0000         
                     1.0000         
  119.0000          -0.1770           0.3507         1.938e-18        
                  -6.501e-02          0.3175         1.576e-18        
                   4.894e-10        2.043e+09         25.0000         
                     1.0000         
  120.0000          -0.1770           0.3507         1.938e-18        
                    -0.2348           0.3685         1.361e-18        
                   5.400e-10        1.851e+09         25.0000         
                     1.0000         
  121.0000          -0.1770           0.3507         1.938e-18        
                    -0.1695           0.2176         1.555e-18        
                   3.830e-10        2.610e+09         25.0000         
                     1.0000         
  122.0000          -0.1770           0.3507         1.938e-18        
                    -0.2037           0.4346         1.122e-18        
                   6.352e-10        1.574e+09         25.0000         
                     1.0000         
  123.0000          -0.1770           0.3507         1.938e-18        
                    -0.3345           0.3470         1.401e-18        
                   5.107e-10        1.957e+09         25.0000         
                     1.0000         
  124.0000          -0.1770           0.3507         1.938e-18        
                    -0.2298           0.4055         7.319e-19        
                   5.214e-10        1.918e+09         25.0000         
                     1.0000         
  125.0000          -0.1770           0.3507         1.938e-18        
                    -0.2288           0.2304         1.184e-18        
                   3.753e-10        2.664e+09         25.0000         
                     1.0000         
  126.0000          -0.1770           0.3507         1.938e-18        
                    -0.1151           0.3252         1.292e-18        
                   4.727e-10        2.115e+09         25.0000         
                     1.0000         
  127.0000          -0.1770           0.3507         1.938e-18        
                    -0.2019           0.2370         1.602e-18        
                   4.010e-10        2.494e+09         25.0000         
                     1.0000         
  128.0000          -0.1770           0.3507         1.938e-18        
                    -0.1789           0.2782         1.465e-18        
                   4.318e-10        2.316e+09         25.0000         
                     1.0000         
  129.0000          -0.1770           0.3507         1.938e-18        
                  -6.892e-02          0.2299         5.383e-19        
                   3.474e-10        2.878e+09         25.0000         
                     1.0000         
  130.0000          -0.1770           0.3507         1.938e-18        
                    -0.2838           0.2121         8.379e-19        
                   3.486e-10        2.868e+09         25.0000         
                     1.0000         
  131.0000          -0.1770           0.3507         1.938e-18        
                  -7.565e-02          0.2821         1.459e-18        
                   4.373e-10        2.286e+09         25.0000         
                     1.0000         
  132.0000          -0.1770           0.3507         1.938e-18        
                  -6.854e-02          0.2907         1.574e-18        
                   4.551e-10        2.197e+09         25.0000         
                     1.0000         
  133.0000          -0.1770           0.3507         1.938e-18        
                    -0.1602           0.3694         1.602e-18        
                   5.686e-10        1.758e+09         25.0000         
                     1.0000         
  134.0000          -0.1770           0.3507         1.938e-18        
                  -3.056e-02          0.3612         5.628e-19        
                   4.686e-10        2.133e+09         25.0000         
                     1.0000         
  135.0000          -0.1770           0.3507         1.938e-18        
                    -0.1154           0.4219         9.900e-19        
                   5.909e-10        1.692e+09         25.0000         
                     1.0000         
  136.0000          -0.1770           0.3507         1.938e-18        
                    -0.2099           0.2677         5.667e-19        
                   3.688e-10        2.711e+09         25.0000         
                     1.0000         
  137.0000          -0.1770           0.3507         1.938e-18        
                    -0.2091           0.2766         1.049e-18        
                   4.038e-10        2.476e+09         25.0000         
                     1.0000         
  138.0000          -0.1770           0.3507         1.938e-18        
                    -0.1701           0.2994         1.038e-18        
                   4.239e-10        2.359e+09         25.0000         
                     1.0000         
  139.0000          -0.1770           0.3507         1.938e-18        
                    -0.2777           0.3503         6.129e-19        
                   4.392e-10        2.276e+09         25.0000         
                     1.0000         
  140.0000          -0.1770           0.3507         1.938e-18        
                    -0.1559           0.3079         1.385e-18        
                   4.587e-10        2.180e+09         25.0000         
                     1.0000         
  141.0000          -0.1770           0.3507         1.938e-18        
                    -0.1243           0.2546         6.662e-19        
                   3.664e-10        2.729e+09         25.0000         
                     1.0000         
  142.0000          -0.1770           0.3507         1.938e-18        
                    -0.1259           0.3147         6.861e-19        
                   4.127e-10        2.423e+09         25.0000         
                     1.0000         
  143.0000          -0.1770           0.3507         1.938e-18        
                    -0.2063           0.4304         8.225e-19        
                   5.766e-10        1.734e+09         25.0000         
                     1.0000         
  144.0000          -0.1770           0.3507         1.938e-18        
                    -0.2066           0.2615         6.786e-19        
                   3.709e-10        2.695e+09         25.0000         
                     1.0000         
  145.0000          -0.1770           0.3507         1.938e-18        
                    -0.1291           0.3575         6.824e-19        
                   4.549e-10        2.198e+09         25.0000         
                     1.0000         
  146.0000          -0.1770           0.3507         1.938e-18        
                    -0.1004           0.3170         1.549e-18        
                   4.841e-10        2.065e+09         25.0000         
                     1.0000         
  147.0000          -0.1770           0.3507         1.938e-18        
                    -0.2324           0.3436         1.608e-18        
                   5.256e-10        1.902e+09         25.0000         
                     1.0000         
  148.0000          -0.1770           0.3507         1.938e-18        
                  -9.271e-02          0.4230         1.289e-18        
                   6.436e-10        1.553e+09         25.0000         
                     1.0000         
  149.0000          -0.1770           0.3507         1.938e-18        
                    -0.3388           0.3828         1.510e-18        
                   5.825e-10        1.716e+09         25.0000         
                     1.0000         
  150.0000          -0.1770           0.3507         1.938e-18        
                    -0.2880           0.3279         1.463e-18        
                   4.897e-10        2.041e+09         25.0000         
                     1.0000         
  151.0000          -0.1770           0.3507         1.938e-18        
                    -0.3057           0.2431         6.473e-19        
                   3.578e-10        2.795e+09         25.0000         
                     1.0000         
  152.0000          -0.1770           0.3507         1.938e-18        
                  -9.222e-02          0.3965         5.394e-19        
                   4.901e-10        2.040e+09         25.0000         
                     1.0000         
  153.0000          -0.1770           0.3507         1.938e-18        
                    -0.2095           0.3888         9.126e-19        
                   5.197e-10        1.924e+09         25.0000         
                     1.0000         
  154.0000          -0.1770           0.3507         1.938e-18        
                    -0.1827           0.2493         7.104e-19        
                   3.648e-10        2.741e+09         25.0000         
                     1.0000         
  155.0000          -0.1770           0.3507         1.938e-18        
                    -0.2340           0.2216         1.334e-18        
                   3.760e-10        2.659e+09         25.0000         
                     1.0000         
  156.0000          -0.1770           0.3507         1.938e-18        
                    -0.1834           0.4163         1.261e-18        
                   6.169e-10        1.621e+09         25.0000         
                     1.0000         
  157.0000          -0.1770           0.3507         1.938e-18        
                    -0.2356           0.3508         8.611e-19        
                   4.636e-10        2.157e+09         25.0000         
                     1.0000         
  158.0000          -0.1770           0.3507         1.938e-18        
                    -0.1640           0.2519         1.444e-18        
                   4.057e-10        2.465e+09         25.0000         
                     1.0000         
  159.0000          -0.1770           0.3507         1.938e-18        
                  -3.301e-02          0.3208         9.100e-19        
                   4.474e-10        2.235e+09         25.0000         
                     1.0000         
  160.0000          -0.1770           0.3507         1.938e-18        
                    -0.1218           0.3557         1.438e-18        
                   5.289e-10        1.890e+09         25.0000         
                     1.0000         
  161.0000          -0.1770           0.3507         1.938e-18        
                    -0.2008           0.2174         1.411e-18        
                   3.764e-10        2.656e+09         25.0000         
                     1.0000         
  162.0000          -0.1770           0.3507         1.938e-18        
                    -0.3117           0.4102         1.353e-18        
                   6.169e-10        1.621e+09         25.0000         
                     1.0000         
  163.0000          -0.1770           0.3507         1.938e-18        
                    -0.3365           0.4310         6.300e-19        
                   5.463e-10        1.830e+09         25.0000         
                     1.0000         
  164.0000          -0.1770           0.3507         1.938e-18        
                    -0.1764           0.2284         7.554e-19        
                   3.543e-10        2.822e+09         25.0000         
                     1.0000         
  165.0000          -0.1770           0.3507         1.938e-18        
                    -0.2126           0.4220         1.134e-18        
                   6.094e-10        1.641e+09         25.0000         
                     1.0000         
  166.0000          -0.1770           0.3507         1.938e-18        
                  -8.275e-02          0.3691         1.441e-18        
                   5.545e-10        1.803e+09         25.0000         
                     1.0000         
  167.0000          -0.1770           0.3507         1.938e-18        
                    -0.1755           0.2578         1.473e-18        
                   4.126e-10        2.423e+09         25.0000         
                     1.0000         
  168.0000          -0.1770           0.3507         1.938e-18        
                    -0.1949           0.4112         5.812e-19        
                   5.090e-10        1.964e+09         25.0000         
                     1.0000         
  169.0000          -0.1770           0.3507         1.938e-18        
                    -0.2004           0.2896         1.267e-18        
                   4.301e-10        2.325e+09         25.0000         
                     1.0000         
  170.0000          -0.1770           0.3507         1.938e-18        
                  -8.511e-02          0.3877         1.128e-18        
                   5.506e-10        1.816e+09         25.0000         
                     1.0000         
  171.0000          -0.1770           0.3507         1.938e-18        
                    -0.1648           0.3134         1.430e-18        
                   4.687e-10        2.133e+09         25.0000         
                     1.0000         
  172.0000          -0.1770           0.3507         1.938e-18        
                  -6.604e-02          0.2817         8.661e-19        
                   3.997e-10        2.501e+09         25.0000         
                     1.0000         
  173.0000          -0.1770           0.3507         1.938e-18        
                  -2.497e-02          0.2940         8.715e-19        
                   4.185e-10        2.389e+09         25.0000         
                     1.0000         
  174.0000          -0.1770           0.3507         1.938e-18        
                  -6.307e-02          0.2243         7.735e-19        
                   3.547e-10        2.819e+09         25.0000         
                     1.0000         
  175.0000          -0.1770           0.3507         1.938e-18        
                  -3.381e-02          0.2798         1.207e-18        
                   4.235e-10        2.361e+09         25.0000         
                     1.0000         
  176.0000          -0.1770           0.3507         1.938e-18        
                  -8.032e-02          0.3110         1.012e-18        
                   4.360e-10        2.293e+09         25.0000         
                     1.0000         
  177.0000          -0.1770           0.3507         1.938e-18        
                    -0.1860           0.4232         1.142e-18        
                   6.136e-10        1.629e+09         25.0000         
                     1.0000         
  178.0000          -0.1770           0.3507         1.938e-18        
                    -0.3151           0.2892         5.828e-19        
                   3.843e-10        2.602e+09         25.0000         
                     1.0000         
  179.0000          -0.1770           0.3507         1.938e-18        
                    -0.2205           0.4202         1.418e-18        
                   6.494e-10        1.539e+09         25.0000         
                     1.0000         
  180.0000          -0.1770           0.3507         1.938e-18        
                    -0.1593           0.3752         6.563e-19        
                   4.718e-10        2.119e+09         25.0000         
                     1.0000         
  181.0000          -0.1770           0.3507         1.938e-18        
                    -0.2707           0.3488         8.809e-19        
                   4.631e-10        2.159e+09         25.0000         
                     1.0000         
  182.0000          -0.1770           0.3507         1.938e-18        
                    -0.1432           0.3738         7.219e-19        
                   4.778e-10        2.092e+09         25.0000         
                     1.0000         
  183.0000          -0.1770           0.3507         1.938e-18        
                    -0.1195           0.3181         1.076e-18        
                   4.466e-10        2.239e+09         25.0000         
                     1.0000         
  184.0000          -0.1770           0.3507         1.938e-18        
                  -9.627e-02          0.3125         1.324e-18        
                   4.606e-10        2.171e+09         25.0000         
                     1.0000         
  185.0000          -0.1770           0.3507         1.938e-18        
                    -0.1972           0.4336         8.422e-19        
                   5.860e-10        1.706e+09         25.0000         
                     1.0000         
  186.0000          -0.1770           0.3507         1.938e-18        
                    -0.1009           0.2587         1.236e-18        
                   4.005e-10        2.496e+09         25.0000         
                     1.0000         
  187.0000          -0.1770           0.3507         1.938e-18        
                    -0.1015           0.3407         9.769e-19        
                   4.648e-10        2.151e+09         25.0000         
                     1.0000         
  188.0000          -0.1770           0.3507         1.938e-18        
                    -0.1499           0.3415         1.140e-18        
                   4.791e-10        2.087e+09         25.0000         
                     1.0000         
  189.0000          -0.1770           0.3507         1.938e-18        
                    -0.2877           0.2161         8.548e-19        
                   3.515e-10        2.844e+09         25.0000         
                     1.0000         
  190.0000          -0.1770           0.3507         1.938e-18        
                    -0.2302           0.2179         1.115e-18        
                   3.638e-10        2.749e+09         25.0000         
                     1.0000         
  191.0000          -0.1770           0.3507         1.938e-18        
                    -0.1665           0.3273         1.609e-18        
                   5.017e-10        1.993e+09         25.0000         
                     1.0000         
  192.0000          -0.1770           0.3507         1.938e-18        
                    -0.3245           0.2128         1.100e-18        
                   3.599e-10        2.778e+09         25.0000         
                     1.0000         
  193.0000          -0.1770           0.3507         1.938e-18        
                    -0.1193           0.3370         1.477e-18        
                   5.046e-10        1.981e+09         25.0000         
                     1.0000         
  194.0000          -0.1770           0.3507         1.938e-18        
                  -8.939e-02          0.2813         5.497e-19        
                   3.786e-10        2.641e+09         25.0000         
                     1.0000         
  195.0000          -0.1770           0.3507         1.938e-18        
                    -0.2188           0.3645         9.392e-19        
                   4.885e-10        2.047e+09         25.0000         
                     1.0000         
  196.0000          -0.1770           0.3507         1.938e-18        
                    -0.2200           0.3825         8.062e-19        
                   4.979e-10        2.008e+09         25.0000         
                     1.0000         
  197.0000          -0.1770           0.3507         1.938e-18        
                    -0.3157           0.4004         1.087e-18        
                   5.608e-10        1.783e+09         25.0000         
                     1.0000         
  198.0000          -0.1770           0.3507         1.938e-18        
                  -3.354e-02          0.3889         9.340e-19        
                   5.499e-10        1.818e+09         25.0000         
                     1.0000         
  199.0000          -0.1770           0.3507         1.938e-18        
                    -0.1573           0.3371         9.472e-19        
                   4.562e-10        2.192e+09         25.0000         
                     1.0000         
  200.0000          -0.1770           0.3507         1.938e-18        
                    -0.2310           0.2553         1.285e-18        
                   3.996e-10        2.502e+09         25.0000         
                     1.0000         
  201.0000          -0.1770           0.3507         1.938e-18        
                    -0.2362           0.2221         6.689e-19        
                   3.469e-10        2.882e+09         25.0000         
                     1.0000         
  202.0000          -0.1770           0.3507         1.938e-18        
                  -5.818e-02          0.2245         9.520e-19        
                   3.628e-10        2.756e+09         25.0000         
                     1.0000         
  203.0000          -0.1770           0.3507         1.938e-18        
                    -0.1565           0.2622         8.872e-19        
                   3.830e-10        2.610e+09         25.0000         
                     1.0000         
  204.0000          -0.1770           0.3507         1.938e-18        
                    -0.1811           0.2538         8.152e-19        
                   3.732e-10        2.679e+09         25.0000         
                     1.0000         
  205.0000          -0.1770           0.3507         1.938e-18        
                    -0.1716           0.3374         1.036e-18        
                   4.643e-10        2.153e+09         25.0000         
                     1.0000         
  206.0000          -0.1770           0.3507         1.938e-18        
                    -0.2182           0.4087         5.436e-19        
                   5.001e-10        1.999e+09         25.0000         
                     1.0000         
  207.0000          -0.1770           0.3507         1.938e-18        
                    -0.1382           0.4255         9.694e-19        
                   5.926e-10        1.687e+09         25.0000         
                     1.0000         
  208.0000          -0.1770           0.3507         1.938e-18        
                    -0.1354           0.3788         1.126e-18        
                   5.310e-10        1.883e+09         25.0000         
                     1.0000         
  209.0000          -0.1770           0.3507         1.938e-18        
                    -0.1012           0.2866         1.497e-18        
                   4.438e-10        2.253e+09         25.0000         
                     1.0000         
  210.0000          -0.1770           0.3507         1.938e-18        
                  -8.229e-02          0.3747         1.375e-18        
                   5.573e-10        1.794e+09         25.0000         
                     1.0000         
  211.0000          -0.1770           0.3507         1.938e-18        
                    -0.1891           0.4005         1.516e-18        
                   6.195e-10        1.614e+09         25.0000         
                     1.0000         
  212.0000          -0.1770           0.3507         1.938e-18        
                  -2.732e-02          0.2183         8.671e-19        
                   3.581e-10        2.792e+09         25.0000         
                     1.0000         
  213.0000          -0.1770           0.3507         1.938e-18        
                  -5.656e-02          0.2660         5.514e-19        
                   3.708e-10        2.696e+09         25.0000         
                     1.0000         
  214.0000          -0.1770           0.3507         1.938e-18        
                    -0.2295           0.3635         1.595e-18        
                   5.570e-10        1.795e+09         25.0000         
                     1.0000         
  215.0000          -0.1770           0.3507         1.938e-18        
                    -0.1283           0.2689         9.202e-19        
                   3.902e-10        2.562e+09         25.0000         
                     1.0000         
  216.0000          -0.1770           0.3507         1.938e-18        
                    -0.2840           0.3195         1.531e-18        
                   4.843e-10        2.065e+09         25.0000         
                     1.0000         
  217.0000          -0.1770           0.3507         1.938e-18        
                    -0.2874           0.3590         1.566e-18        
                   5.462e-10        1.831e+09         25.0000         
                     1.0000         
  218.0000          -0.1770           0.3507         1.938e-18        
                  -5.614e-02          0.3539         1.274e-18        
                   5.171e-10        1.933e+09         25.0000         
                     1.0000         
  219.0000          -0.1770           0.3507         1.938e-18        
                    -0.2127           0.3902         9.254e-19        
                   5.234e-10        1.910e+09         25.0000         
                     1.0000         
  220.0000          -0.1770           0.3507         1.938e-18        
                  -4.102e-02          0.2978         8.683e-19        
                   4.179e-10        2.392e+09         25.0000         
                     1.0000         
  221.0000          -0.1770           0.3507         1.938e-18        
                    -0.2374           0.3903         1.400e-18        
                   5.830e-10        1.715e+09         25.0000         
                     1.0000         
  222.0000          -0.1770           0.3507         1.938e-18        
                    -0.2260           0.3877         7.210e-19        
                   4.947e-10        2.021e+09         25.0000         
                     1.0000         
  223.0000          -0.1770           0.3507         1.938e-18        
                    -0.3108           0.2473         1.306e-18        
                   3.941e-10        2.537e+09         25.0000         
                     1.0000         
  224.0000          -0.1770           0.3507         1.938e-18        
                  -4.401e-02          0.4158         1.278e-18        
                   6.468e-10        1.546e+09         25.0000         
                     1.0000         
  225.0000          -0.1770           0.3507         1.938e-18        
                    -0.1263           0.3336         8.705e-19        
                   4.461e-10        2.241e+09         25.0000         
                     1.0000         
  226.0000          -0.1770           0.3507         1.938e-18        
                    -0.3069           0.2882         7.577e-19        
                   3.947e-10        2.533e+09         25.0000         
                     1.0000         
  227.0000          -0.1770           0.3507         1.938e-18        
                    -0.1029           0.2947         5.757e-19        
                   3.892e-10        2.569e+09         25.0000         
                     1.0000         
  228.0000          -0.1770           0.3507         1.938e-18        
                    -0.3325           0.3226         9.364e-19        
                   4.390e-10        2.277e+09         25.0000         
                     1.0000         
  229.0000          -0.1770           0.3507         1.938e-18        
                    -0.2076           0.2114         5.778e-19        
                   3.377e-10        2.961e+09         25.0000         
                     1.0000         
  230.0000          -0.1770           0.3507         1.938e-18        
                    -0.2403           0.2937         1.272e-18        
                   4.346e-10        2.301e+09         25.0000         
                     1.0000         
  231.0000          -0.1770           0.3507         1.938e-18        
                    -0.1622           0.3798         6.378e-19        
                   4.753e-10        2.104e+09         25.0000         
                     1.0000         
  232.0000          -0.1770           0.3507         1.938e-18        
                    -0.1773           0.4040         6.596e-19        
                   5.099e-10        1.961e+09         25.0000         
                     1.0000         
  233.0000          -0.1770           0.3507         1.938e-18        
                    -0.2970           0.2705         6.059e-19        
                   3.728e-10        2.682e+09         25.0000         
                     1.0000         
  234.0000          -0.1770           0.3507         1.938e-18        
                    -0.1234           0.2922         6.437e-19        
                   3.912e-10        2.556e+09         25.0000         
                     1.0000         
  235.0000          -0.1770           0.3507         1.938e-18        
                    -0.1725           0.2868         1.191e-18        
                   4.223e-10        2.367e+09         25.0000         
                     1.0000         
  236.0000          -0.1770           0.3507         1.938e-18        
                    -0.1572           0.2253         7.134e-19        
                   3.508e-10        2.850e+09         25.0000         
                     1.0000         
  237.0000          -0.1770           0.3507         1.938e-18        
                    -0.2406           0.3433         1.085e-18        
                   4.757e-10        2.102e+09         25.0000         
                     1.0000         
  238.0000          -0.1770           0.3507         1.938e-18        
                  -6.421e-02          0.3963         1.393e-18        
                   6.059e-10        1.650e+09         25.0000         
                     1.0000         
  239.0000          -0.1770           0.3507         1.938e-18        
                    -0.1728           0.4076         8.734e-19        
                   5.448e-10        1.835e+09         25.0000         
                     1.0000         
  240.0000          -0.1770           0.3507         1.938e-18        
                    -0.2664           0.2124         8.895e-19        
                   3.509e-10        2.850e+09         25.0000         
                     1.0000         
  241.0000          -0.1770           0.3507         1.938e-18        
                    -0.1041           0.3805         5.506e-19        
                   4.692e-10        2.131e+09         25.0000         
                     1.0000         
  242.0000          -0.1770           0.3507         1.938e-18        
                    -0.2811           0.2270         7.502e-19        
                   3.532e-10        2.831e+09         25.0000         
                     1.0000         
  243.0000          -0.1770           0.3507         1.938e-18        
                  -3.037e-02          0.2463         1.526e-18        
                   4.098e-10        2.440e+09         25.0000         
                     1.0000         
  244.0000          -0.1770           0.3507         1.938e-18        
                    -0.1782           0.2999         8.820e-19        
                   4.132e-10        2.419e+09         25.0000         
                     1.0000         
  245.0000          -0.1770           0.3507         1.938e-18        
                  -3.437e-02          0.4265         6.921e-19        
                   5.948e-10        1.681e+09         25.0000         
                     1.0000         
  246.0000          -0.1770           0.3507         1.938e-18        
                    -0.2974           0.3521         8.852e-19        
                   4.673e-10        2.139e+09         25.0000         
                     1.0000         
  247.0000          -0.1770           0.3507         1.938e-18        
                    -0.1609           0.2293         1.539e-18        
                   3.915e-10        2.554e+09         25.0000         
                     1.0000         
  248.0000          -0.1770           0.3507         1.938e-18        
                    -0.1763           0.3081         9.638e-19        
                   4.269e-10        2.342e+09         25.0000         
                     1.0000         
  249.0000          -0.1770           0.3507         1.938e-18        
                    -0.3177           0.2526         7.962e-19        
                   3.712e-10        2.693e+09         25.0000         
                     1.0000         
  250.0000          -0.1770           0.3507         1.938e-18        
                    -0.3358           0.4015         1.358e-18        
                   5.996e-10        1.667e+09         25.0000         
                     1.0000         
  251.0000          -0.1770           0.3507         1.938e-18        
                    -0.2120           0.2720         7.029e-19        
                   3.794e-10        2.635e+09         25.0000         
                     1.0000         
  252.0000          -0.1770           0.3507         1.938e-18        
                    -0.1476           0.2366         1.350e-18        
                   3.881e-10        2.576e+09         25.0000         
                     1.0000         
  253.0000          -0.1770           0.3507         1.938e-18        
                    -0.3065           0.2384         1.112e-18        
                   3.775e-10        2.649e+09         25.0000         
                     1.0000         
  254.0000          -0.1770           0.3507         1.938e-18        
                    -0.3240           0.2611         1.328e-18        
                   4.071e-10        2.456e+09         25.0000         
                     1.0000         
  255.0000          -0.1770           0.3507         1.938e-18        
                  -6.820e-02          0.2389         8.278e-19        
                   3.659e-10        2.732e+09         25.0000         
                     1.0000         
  256.0000          -0.1770           0.3507         1.938e-18        
                    -0.3363           0.2093         1.422e-18        
                   3.712e-10        2.694e+09         25.0000         
                     1.0000         
  257.0000          -0.1770           0.3507         1.938e-18        
                  -2.835e-02          0.3044         1.311e-18        
                   4.591e-10        2.178e+09         25.0000         
                     1.0000         
  258.0000          -0.1770           0.3507         1.938e-18        
                    -0.3369           0.2640         8.107e-19        
                   3.798e-10        2.632e+09         25.0000         
                     1.0000         
  259.0000          -0.1770           0.3507         1.938e-18        
                  -6.204e-02          0.2657         7.603e-19        
                   3.814e-10        2.621e+09         25.0000         
                     1.0000         
  260.0000          -0.1770           0.3507         1.938e-18        
                    -0.2675           0.3453         7.815e-19        
                   4.498e-10        2.223e+09         25.0000         
                     1.0000         
  261.0000          -0.1770           0.3507         1.938e-18        
                    -0.2219           0.3999         5.402e-19        
                   4.879e-10        2.049e+09         25.0000         
                     1.0000         
  262.0000          -0.1770           0.3507         1.938e-18        
                    -0.1478           0.3892         1.476e-18        
                   5.915e-10        1.690e+09         25.0000         
                     1.0000         
  263.0000          -0.1770           0.3507         1.938e-18        
                    -0.1567           0.2151         1.493e-18        
                   3.784e-10        2.642e+09         25.0000         
                     1.0000         
  264.0000          -0.1770           0.3507         1.938e-18        
                    -0.2234           0.4376         7.228e-19        
                   5.735e-10        1.743e+09         25.0000         
                     1.0000         
  265.0000          -0.1770           0.3507         1.938e-18        
                  -4.500e-02          0.4262         9.589e-19        
                   6.239e-10        1.602e+09         25.0000         
                     1.0000         
  266.0000          -0.1770           0.3507         1.938e-18        
                    -0.2892           0.3046         1.164e-18        
                   4.381e-10        2.282e+09         25.0000         
                     1.0000         
  267.0000          -0.1770           0.3507         1.938e-18        
                  -4.385e-02          0.2456         1.101e-18        
                   3.859e-10        2.591e+09         25.0000         
                     1.0000         
  268.0000          -0.1770           0.3507         1.938e-18        
                  -6.971e-02          0.3478         7.457e-19        
                   4.556e-10        2.195e+09         25.0000         
                     1.0000         
  269.0000          -0.1770           0.3507         1.938e-18        
                    -0.2337           0.2880         8.447e-19        
                   4.003e-10        2.498e+09         25.0000         
                     1.0000         
  270.0000          -0.1770           0.3507         1.938e-18        
                    -0.2671           0.2682         1.216e-18        
                   4.067e-10        2.458e+09         25.0000         
                     1.0000         
  271.0000          -0.1770           0.3507         1.938e-18        
                    -0.3051           0.3822         1.199e-18        
                   5.438e-10        1.838e+09         25.0000         
                     1.0000         
  272.0000          -0.1770           0.3507         1.938e-18        
                  -6.645e-02          0.4352         6.871e-19        
                   5.848e-10        1.710e+09         25.0000         
                     1.0000         
  273.0000          -0.1770           0.3507         1.938e-18        
                    -0.1744           0.3259         1.291e-18        
                   4.726e-10        2.115e+09         25.0000         
                     1.0000         
  274.0000          -0.1770           0.3507         1.938e-18        
                    -0.2264           0.3717         1.379e-18        
                   5.473e-10        1.827e+09         25.0000         
                     1.0000         
  275.0000          -0.1770           0.3507         1.938e-18        
                    -0.1554           0.2918         7.802e-19        
                   3.995e-10        2.503e+09         25.0000         
                     1.0000         
  276.0000          -0.1770           0.3507         1.938e-18        
                    -0.1898           0.3836         6.150e-19        
                   4.770e-10        2.096e+09         25.0000         
                     1.0000         
  277.0000          -0.1770           0.3507         1.938e-18        
                    -0.1707           0.2496         7.973e-19        
                   3.695e-10        2.706e+09         25.0000         
                     1.0000         
  278.0000          -0.1770           0.3507         1.938e-18        
                    -0.3000           0.2211         1.127e-18        
                   3.663e-10        2.729e+09         25.0000         
                     1.0000         
  279.0000          -0.1770           0.3507         1.938e-18        
                    -0.1463           0.2166         6.683e-19        
                   3.442e-10        2.905e+09         25.0000         
                     1.0000         
  280.0000          -0.1770           0.3507         1.938e-18        
                    -0.1652           0.2309         1.205e-18        
                   3.768e-10        2.654e+09         25.0000         
                     1.0000         
  281.0000          -0.1770           0.3507         1.938e-18        
                  -8.159e-02          0.2692         1.243e-18        
                   4.108e-10        2.434e+09         25.0000         
                     1.0000         
  282.0000          -0.1770           0.3507         1.938e-18        
                    -0.1739           0.3758         1.138e-18        
                   5.267e-10        1.898e+09         25.0000         
                     1.0000         
  283.0000          -0.1770           0.3507         1.938e-18        
                    -0.2239           0.4295         6.013e-19        
                   5.395e-10        1.853e+09         25.0000         
                     1.0000         
  284.0000          -0.1770           0.3507         1.938e-18        
                    -0.2552           0.2477         6.202e-19        
                   3.592e-10        2.783e+09         25.0000         
                     1.0000         
  285.0000          -0.1770           0.3507         1.938e-18        
                    -0.1434           0.4193         6.454e-19        
                   5.320e-10        1.879e+09         25.0000         
                     1.0000         
  286.0000          -0.1770           0.3507         1.938e-18        
                    -0.1624           0.2871         1.436e-18        
                   4.393e-10        2.276e+09         25.0000         
                     1.0000         
  287.0000          -0.1770           0.3507         1.938e-18        
                  -8.478e-02          0.3098         1.355e-18        
                   4.605e-10        2.171e+09         25.0000         
                     1.0000         
  288.0000          -0.1770           0.3507         1.938e-18        
                  -3.957e-02          0.2193         1.248e-18        
                   3.735e-10        2.677e+09         25.0000         
                     1.0000         
  289.0000          -0.1770           0.3507         1.938e-18        
                    -0.2381           0.2171         1.584e-18        
                   3.839e-10        2.604e+09         25.0000         
                     1.0000         
  290.0000          -0.1770           0.3507         1.938e-18        
                    -0.2769           0.3451         1.094e-18        
                   4.787e-10        2.088e+09         25.0000         
                     1.0000         
  291.0000          -0.1770           0.3507         1.938e-18        
                  -5.112e-02          0.2695         9.167e-19        
                   3.942e-10        2.536e+09         25.0000         
                     1.0000         
  292.0000          -0.1770           0.3507         1.938e-18        
                    -0.1314           0.3346         6.729e-19        
                   4.300e-10        2.325e+09         25.0000         
                     1.0000         
  293.0000          -0.1770           0.3507         1.938e-18        
                  -7.797e-02          0.2143         1.467e-18        
                   3.777e-10        2.647e+09         25.0000         
                     1.0000         
  294.0000          -0.1770           0.3507         1.938e-18        
                  -4.988e-02          0.3924         9.390e-19        
                   5.468e-10        1.828e+09         25.0000         
                     1.0000         
  295.0000          -0.1770           0.3507         1.938e-18        
                  -5.449e-02          0.2998         5.658e-19        
                   3.970e-10        2.519e+09         25.0000         
                     1.0000         
  296.0000          -0.1770           0.3507         1.938e-18        
                    -0.2744           0.4201         1.596e-18        
                   6.767e-10        1.477e+09         25.0000         
                     1.0000         
  297.0000          -0.1770           0.3507         1.938e-18        
                    -0.2904           0.2232         1.069e-18        
                   3.652e-10        2.738e+09         25.0000         
                     1.0000         
  298.0000          -0.1770           0.3507         1.938e-18        
                    -0.1973           0.2482         1.486e-18        
                   4.046e-10        2.471e+09         25.0000         
                     1.0000         
  299.0000          -0.1770           0.3507         1.938e-18        
                    -0.1247           0.3618         1.103e-18        
                   5.035e-10        1.986e+09         25.0000         
                     1.0000         
  300.0000          -0.1770           0.3507         1.938e-18        
                  -3.873e-02          0.2274         1.413e-18        
                   3.870e-10        2.583e+09         25.0000         
                     1.0000         
  301.0000          -0.1770           0.3507         1.938e-18        
                    -0.1084           0.4121         1.462e-18        
                   6.414e-10        1.559e+09         25.0000         
                     1.0000         
  302.0000          -0.1770           0.3507         1.938e-18        
                    -0.1887           0.2613         1.397e-18        
                   4.113e-10        2.431e+09         25.0000         
                     1.0000         
  303.0000          -0.1770           0.3507         1.938e-18        
                    -0.1550           0.2259         9.891e-19        
                   3.634e-10        2.751e+09         25.0000         
                     1.0000         
  304.0000          -0.1770           0.3507         1.938e-18        
                    -0.2611           0.3153         6.080e-19        
                   4.063e-10        2.461e+09         25.0000         
                     1.0000         
  305.0000          -0.1770           0.3507         1.938e-18        
                  -4.170e-02          0.4190         8.527e-19        
                   5.941e-10        1.683e+09         25.0000         
                     1.0000         
  306.0000          -0.1770           0.3507         1.938e-18        
                    -0.2016           0.2352         8.228e-19        
                   3.614e-10        2.766e+09         25.0000         
                     1.0000         
  307.0000          -0.1770           0.3507         1.938e-18        
                  -2.538e-02          0.3400         6.309e-19        
                   4.509e-10        2.217e+09         25.0000         
                     1.0000         
  308.0000          -0.1770           0.3507         1.938e-18        
                    -0.2820           0.3982         1.614e-18        
                   6.275e-10        1.593e+09         25.0000         
                     1.0000         
  309.0000          -0.1770           0.3507         1.938e-18        
                    -0.1702           0.4295         7.542e-19        
                   5.648e-10        1.770e+09         25.0000         
                     1.0000         
  310.0000          -0.1770           0.3507         1.938e-18        
                    -0.1631           0.2583         1.182e-18        
                   3.965e-10        2.521e+09         25.0000         
                     1.0000         
  311.0000          -0.1770           0.3507         1.938e-18        
                    -0.2823           0.2423         1.348e-18        
                   3.923e-10        2.549e+09         25.0000         
                     1.0000         
  312.0000          -0.1770           0.3507         1.938e-18        
                    -0.1502           0.3729         1.339e-18        
                   5.455e-10        1.833e+09         25.0000         
                     1.0000         
  313.0000          -0.1770           0.3507         1.938e-18        
                    -0.2500           0.2819         1.265e-18        
                   4.223e-10        2.367e+09         25.0000         
                     1.0000         
  314.0000          -0.1770           0.3507         1.938e-18        
                    -0.2791           0.3156         1.418e-18        
[...]
                    -0.2258           0.2841         8.838e-19        
                   3.996e-10        2.502e+09         25.0000         
                     1.0000         
  923.0000          -0.1770           0.3507         1.938e-18        
                  -4.677e-02          0.4144         6.216e-19        
                   5.477e-10        1.825e+09         25.0000         
                     1.0000         
  924.0000          -0.1770           0.3507         1.938e-18        
                  -2.785e-02          0.4182         1.110e-18        
                   6.447e-10        1.551e+09         25.0000         
                     1.0000         
  925.0000          -0.1770           0.3507         1.938e-18        
                    -0.1167           0.3352         1.033e-18        
                   4.625e-10        2.162e+09         25.0000         
                     1.0000         
  926.0000          -0.1770           0.3507         1.938e-18        
                    -0.2713           0.3442         6.345e-19        
                   4.351e-10        2.298e+09         25.0000         
                     1.0000         
  927.0000          -0.1770           0.3507         1.938e-18        
                    -0.3222           0.4012         8.599e-19        
                   5.318e-10        1.880e+09         25.0000         
                     1.0000         
  928.0000          -0.1770           0.3507         1.938e-18        
                    -0.1830           0.4089         1.377e-18        
                   6.181e-10        1.617e+09         25.0000         
                     1.0000         
  929.0000          -0.1770           0.3507         1.938e-18        
                    -0.1521           0.2330         9.069e-19        
                   3.641e-10        2.746e+09         25.0000         
                     1.0000         
  930.0000          -0.1770           0.3507         1.938e-18        
                    -0.2748           0.3725         6.196e-19        
                   4.639e-10        2.155e+09         25.0000         
                     1.0000         
  931.0000          -0.1770           0.3507         1.938e-18        
                  -7.909e-02          0.4052         1.529e-18        
                   6.401e-10        1.562e+09         25.0000         
                     1.0000         
  932.0000          -0.1770           0.3507         1.938e-18        
                  -7.037e-02          0.3830         7.712e-19        
                   5.039e-10        1.984e+09         25.0000         
                     1.0000         
  933.0000          -0.1770           0.3507         1.938e-18        
                    -0.1967           0.3001         8.453e-19        
                   4.108e-10        2.434e+09         25.0000         
                     1.0000         
  934.0000          -0.1770           0.3507         1.938e-18        
                  -3.244e-02          0.3974         6.465e-19        
                   5.318e-10        1.880e+09         25.0000         
                     1.0000         
  935.0000          -0.1770           0.3507         1.938e-18        
                    -0.2318           0.3803         1.415e-18        
                   5.664e-10        1.765e+09         25.0000         
                     1.0000         
  936.0000          -0.1770           0.3507         1.938e-18        
                    -0.2248           0.4023         1.381e-18        
                   6.045e-10        1.654e+09         25.0000         
                     1.0000         
  937.0000          -0.1770           0.3507         1.938e-18        
                  -2.472e-02          0.2524         1.037e-18        
                   3.906e-10        2.560e+09         25.0000         
                     1.0000         
  938.0000          -0.1770           0.3507         1.938e-18        
                    -0.1349           0.4216         6.076e-19        
                   5.304e-10        1.885e+09         25.0000         
                     1.0000         
  939.0000          -0.1770           0.3507         1.938e-18        
                    -0.1802           0.2959         9.292e-19        
                   4.130e-10        2.421e+09         25.0000         
                     1.0000         
  940.0000          -0.1770           0.3507         1.938e-18        
                    -0.2214           0.2963         1.580e-18        
                   4.594e-10        2.177e+09         25.0000         
                     1.0000         
  941.0000          -0.1770           0.3507         1.938e-18        
                  -4.826e-02          0.3863         1.044e-18        
                   5.493e-10        1.820e+09         25.0000         
                     1.0000         
  942.0000          -0.1770           0.3507         1.938e-18        
                    -0.1306           0.3881         1.458e-18        
                   5.878e-10        1.701e+09         25.0000         
                     1.0000         
  943.0000          -0.1770           0.3507         1.938e-18        
                    -0.2931           0.3882         9.228e-19        
                   5.199e-10        1.923e+09         25.0000         
                     1.0000         
  944.0000          -0.1770           0.3507         1.938e-18        
                    -0.1173           0.3778         1.394e-18        
                   5.615e-10        1.781e+09         25.0000         
                     1.0000         
  945.0000          -0.1770           0.3507         1.938e-18        
                    -0.3193           0.2111         1.502e-18        
                   3.758e-10        2.660e+09         25.0000         
                     1.0000         
  946.0000          -0.1770           0.3507         1.938e-18        
                    -0.1443           0.2501         8.489e-19        
                   3.726e-10        2.684e+09         25.0000         
                     1.0000         
  947.0000          -0.1770           0.3507         1.938e-18        
                  -6.878e-02          0.3506         7.467e-19        
                   4.591e-10        2.178e+09         25.0000         
                     1.0000         
  948.0000          -0.1770           0.3507         1.938e-18        
                  -3.899e-02          0.2158         1.542e-18        
                   3.838e-10        2.605e+09         25.0000         
                     1.0000         
  949.0000          -0.1770           0.3507         1.938e-18        
                    -0.2053           0.3743         1.050e-18        
                   5.143e-10        1.944e+09         25.0000         
                     1.0000         
  950.0000          -0.1770           0.3507         1.938e-18        
                    -0.3045           0.3820         7.011e-19        
                   4.846e-10        2.063e+09         25.0000         
                     1.0000         
  951.0000          -0.1770           0.3507         1.938e-18        
                  -7.379e-02          0.4084         1.084e-18        
                   5.864e-10        1.705e+09         25.0000         
                     1.0000         
  952.0000          -0.1770           0.3507         1.938e-18        
                    -0.2934           0.2357         1.096e-18        
                   3.748e-10        2.668e+09         25.0000         
                     1.0000         
  953.0000          -0.1770           0.3507         1.938e-18        
                    -0.1438           0.3250         6.485e-19        
                   4.186e-10        2.388e+09         25.0000         
                     1.0000         
  954.0000          -0.1770           0.3507         1.938e-18        
                  -4.206e-02          0.2134         1.045e-18        
                   3.608e-10        2.771e+09         25.0000         
                     1.0000         
  955.0000          -0.1770           0.3507         1.938e-18        
                    -0.2882           0.2596         1.323e-18        
                   4.054e-10        2.466e+09         25.0000         
                     1.0000         
  956.0000          -0.1770           0.3507         1.938e-18        
                  -3.474e-02          0.2874         5.481e-19        
                   3.898e-10        2.565e+09         25.0000         
                     1.0000         
  957.0000          -0.1770           0.3507         1.938e-18        
                  -6.629e-02          0.3607         1.411e-18        
                   5.397e-10        1.853e+09         25.0000         
                     1.0000         
  958.0000          -0.1770           0.3507         1.938e-18        
                    -0.2651           0.2886         7.530e-19        
                   3.948e-10        2.533e+09         25.0000         
                     1.0000         
  959.0000          -0.1770           0.3507         1.938e-18        
                    -0.2490           0.2136         1.189e-18        
                   3.641e-10        2.746e+09         25.0000         
                     1.0000         
  960.0000          -0.1770           0.3507         1.938e-18        
                    -0.1473           0.3130         9.403e-19        
                   4.301e-10        2.324e+09         25.0000         
                     1.0000         
  961.0000          -0.1770           0.3507         1.938e-18        
                  -8.569e-02          0.4315         1.174e-18        
                   6.477e-10        1.543e+09         25.0000         
                     1.0000         
  962.0000          -0.1770           0.3507         1.938e-18        
                    -0.2630           0.3207         1.565e-18        
                   4.887e-10        2.046e+09         25.0000         
                     1.0000         
  963.0000          -0.1770           0.3507         1.938e-18        
                    -0.2105           0.3095         1.076e-18        
                   4.366e-10        2.290e+09         25.0000         
                     1.0000         
  964.0000          -0.1770           0.3507         1.938e-18        
                    -0.2055           0.3073         1.266e-18        
                   4.486e-10        2.229e+09         25.0000         
                     1.0000         
  965.0000          -0.1770           0.3507         1.938e-18        
                    -0.2495           0.3690         5.626e-19        
                   4.538e-10        2.203e+09         25.0000         
                     1.0000         
  966.0000          -0.1770           0.3507         1.938e-18        
                    -0.3258           0.2350         1.429e-18        
                   3.905e-10        2.561e+09         25.0000         
                     1.0000         
  967.0000          -0.1770           0.3507         1.938e-18        
                    -0.1207           0.4098         9.215e-19        
                   5.576e-10        1.793e+09         25.0000         
                     1.0000         
  968.0000          -0.1770           0.3507         1.938e-18        
                  -8.770e-02          0.2900         6.114e-19        
                   3.888e-10        2.571e+09         25.0000         
                     1.0000         
  969.0000          -0.1770           0.3507         1.938e-18        
                    -0.1491           0.3788         7.407e-19        
                   4.862e-10        2.056e+09         25.0000         
                     1.0000         
  970.0000          -0.1770           0.3507         1.938e-18        
                    -0.1032           0.4091         9.311e-19        
                   5.599e-10        1.786e+09         25.0000         
                     1.0000         
  971.0000          -0.1770           0.3507         1.938e-18        
                    -0.2499           0.3002         1.159e-18        
                   4.332e-10        2.308e+09         25.0000         
                     1.0000         
  972.0000          -0.1770           0.3507         1.938e-18        
                    -0.3196           0.3019         1.230e-18        
                   4.400e-10        2.272e+09         25.0000         
                     1.0000         
  973.0000          -0.1770           0.3507         1.938e-18        
                  -6.136e-02          0.3519         6.996e-19        
                   4.578e-10        2.184e+09         25.0000         
                     1.0000         
  974.0000          -0.1770           0.3507         1.938e-18        
                    -0.1310           0.2320         1.315e-18        
                   3.830e-10        2.611e+09         25.0000         
                     1.0000         
  975.0000          -0.1770           0.3507         1.938e-18        
                    -0.2593           0.2291         1.500e-18        
                   3.893e-10        2.568e+09         25.0000         
                     1.0000         
  976.0000          -0.1770           0.3507         1.938e-18        
                  -5.131e-02          0.4313         8.431e-19        
                   6.122e-10        1.633e+09         25.0000         
                     1.0000         
  977.0000          -0.1770           0.3507         1.938e-18        
                    -0.3080           0.3416         1.344e-18        
                   4.977e-10        2.009e+09         25.0000         
                     1.0000         
  978.0000          -0.1770           0.3507         1.938e-18        
                    -0.2275           0.4124         1.433e-18        
                   6.338e-10        1.577e+09         25.0000         
                     1.0000         
  979.0000          -0.1770           0.3507         1.938e-18        
                    -0.2418           0.3972         8.785e-19        
                   5.281e-10        1.893e+09         25.0000         
                     1.0000         
  980.0000          -0.1770           0.3507         1.938e-18        
                    -0.1638           0.2756         1.405e-18        
                   4.255e-10        2.350e+09         25.0000         
                     1.0000         
  981.0000          -0.1770           0.3507         1.938e-18        
                    -0.1578           0.2201         1.450e-18        
                   3.802e-10        2.629e+09         25.0000         
                     1.0000         
  982.0000          -0.1770           0.3507         1.938e-18        
                    -0.1335           0.3583         1.224e-18        
                   5.106e-10        1.958e+09         25.0000         
                     1.0000         
  983.0000          -0.1770           0.3507         1.938e-18        
                    -0.2394           0.2685         6.835e-19        
                   3.758e-10        2.660e+09         25.0000         
                     1.0000         
  984.0000          -0.1770           0.3507         1.938e-18        
                    -0.1633           0.4257         1.337e-18        
                   6.506e-10        1.537e+09         25.0000         
                     1.0000         
  985.0000          -0.1770           0.3507         1.938e-18        
                  -8.660e-02          0.3783         1.090e-18        
                   5.301e-10        1.886e+09         25.0000         
                     1.0000         
  986.0000          -0.1770           0.3507         1.938e-18        
                    -0.1708           0.3329         5.570e-19        
                   4.179e-10        2.393e+09         25.0000         
                     1.0000         
  987.0000          -0.1770           0.3507         1.938e-18        
                    -0.1669           0.3108         1.121e-18        
                   4.416e-10        2.264e+09         25.0000         
                     1.0000         
  988.0000          -0.1770           0.3507         1.938e-18        
                    -0.3381           0.3659         1.212e-18        
                   5.195e-10        1.925e+09         25.0000         
                     1.0000         
  989.0000          -0.1770           0.3507         1.938e-18        
                  -3.833e-02          0.2268         1.024e-18        
                   3.691e-10        2.709e+09         25.0000         
                     1.0000         
  990.0000          -0.1770           0.3507         1.938e-18        
                    -0.2918           0.4370         7.491e-19        
                   5.766e-10        1.734e+09         25.0000         
                     1.0000         
  991.0000          -0.1770           0.3507         1.938e-18        
                    -0.2410           0.3135         1.461e-18        
                   4.711e-10        2.122e+09         25.0000         
                     1.0000         
  992.0000          -0.1770           0.3507         1.938e-18        
                  -5.474e-02          0.2535         1.329e-18        
                   4.033e-10        2.479e+09         25.0000         
                     1.0000         
  993.0000          -0.1770           0.3507         1.938e-18        
                    -0.2176           0.2340         1.460e-18        
                   3.913e-10        2.555e+09         25.0000         
                     1.0000         
  994.0000          -0.1770           0.3507         1.938e-18        
                  -6.542e-02          0.2664         1.212e-18        
                   4.074e-10        2.454e+09         25.0000         
                     1.0000         
  995.0000          -0.1770           0.3507         1.938e-18        
                    -0.2530           0.3857         9.634e-19        
                   5.210e-10        1.919e+09         25.0000         
                     1.0000         
  996.0000          -0.1770           0.3507         1.938e-18        
                    -0.2567           0.3533         7.423e-19        
                   4.548e-10        2.198e+09         25.0000         
                     1.0000         
  997.0000          -0.1770           0.3507         1.938e-18        
                  -4.024e-02          0.2154         1.471e-18        
                   3.803e-10        2.629e+09         25.0000         
                     1.0000         
  998.0000          -0.1770           0.3507         1.938e-18        
                  -6.737e-02          0.2784         7.043e-19        
                   3.872e-10        2.582e+09         25.0000         
                     1.0000         
  999.0000          -0.1770           0.3507         1.938e-18        
                    -0.2138           0.3501         8.589e-19        
                   4.625e-10        2.162e+09         25.0000         
                     1.0000         
  1.000e+03         -0.1770           0.3507         1.938e-18        
                  -9.755e-02          0.3561         9.607e-19        
                   4.829e-10        2.071e+09         25.0000         
                     1.0000         
